.SUBCKT Mux A B S not_out VCC GND
*.PININFO A:I B:I S:I not_out:O VCC:P GND:G
*.EQN not_out=!((S + !A) * (!B + !S));
MP1 pu_n5 not_S VCC VCC PMOS
MP2 pu_n5 A VCC VCC PMOS
MP3 out B pu_n5 VCC PMOS
MP4 out S pu_n5 VCC PMOS
MN5 pd_n1 not_S GND GND NMOS
MN6 out A pd_n1 GND NMOS
MN7 pd_n5 B GND GND NMOS
MN8 out S pd_n5 GND NMOS
MP_inv9 not_S S VCC VCC PMOS
MN_inv10 not_S S GND GND NMOS
MP_inv11 not_out out VCC VCC PMOS
MN_inv12 not_out out GND GND NMOS
.ENDS Mux
